dss_grid_VLN.Txt

SYMMETRICAL COMPONENT VOLTAGES BY BUS (for 3-phase buses)

Bus                Mag:   V1 (kV)    p.u.     V2 (kV)   %V2/V1    V0 (kV)    %V0/V1

sourcebus             11.55          0  4.434E-008  3.841E-007 7.512E-010 6.507E-009
ug_bb_20kv            11.54          0  4.434E-008  3.843E-007 7.513E-010 6.512E-009
ug_bb_2kv             1.149          0  4.398E-009  3.827E-007 3.56E-014 3.098E-012
ug_serv_bb           0.2249          0  7.881E-010  3.505E-007 2.818E-011 1.253E-008
ug_bb_lvdc           0.8618          0  2.966E-009  3.441E-007 1.271E-016 1.475E-014
ugs_bb               0.8618          0  2.966E-009  3.441E-007 1.025E-016 1.189E-014
ugs_pv_bb            0.4309          0  1.311E-009  3.043E-007 4.494E-017 1.043E-014
rs_bb_20kv            11.54          0  9.181E-008  7.955E-007 7.513E-010 6.509E-009
rs_bb_04kv           0.2257          0  1.199E-007  5.31E-005 3.003E-008 1.331E-005
ev-charge_bb         0.2253          0  1.199E-007  5.321E-005 3.059E-008 1.357E-005
ev-fast_bb           0.3386          0  1.798E-007  5.31E-005 5.859E-017 1.731E-014
ev-fast-load_node    0.2257          0  1.199E-007  5.31E-005 2.22E-017 9.838E-015
res-wpg_bb            11.54          0  7.919E-008  6.861E-007 7.512E-010 6.509E-009
res_bb               0.2266          0  7.809E-008  3.445E-005 5.805E-008 2.561E-005
user_bb              0.2215          0  7.944E-008  3.587E-005 6.314E-008 2.851E-005
pros_bb              0.2255          0  1.102E-007  4.885E-005 1.356E-007 6.011E-005
pros_bb_dc1          0.3383          0  1.653E-007  4.886E-005 6.029E-017 1.782E-014
pros_bb_dc2          0.3383          0  1.653E-007  4.886E-005 6.395E-017 1.89E-014
wpg_bb1                1.16          0  4.407E-009  3.798E-007 3.819E-011 3.291E-009
wpg_bb2               1.172          0  4.415E-009  3.767E-007 1.612E-010 1.376E-008
wpg_pv_bb            0.3481          0  1.189E-009  3.416E-007 3.826E-017 1.099E-014
